
#======================================================================
# CRYSTAL DATA
#----------------------------------------------------------------------
data_VESTA_phase_1

_chemical_name_common                  '86-58-P2                              '
_cell_length_a                         7.848500
_cell_length_b                         7.848500
_cell_length_c                         5.919700
_cell_angle_alpha                      90.000000
_cell_angle_beta                       90.000000
_cell_angle_gamma                      120.000000
_cell_volume                           315.793830
_space_group_name_H-M_alt              'P 1'
_space_group_IT_number                 1

loop_
_space_group_symop_operation_xyz
   'x, y, z'

loop_
   _atom_site_label
   _atom_site_occupancy
   _atom_site_fract_x
   _atom_site_fract_y
   _atom_site_fract_z
   _atom_site_adp_type
   _atom_site_U_iso_or_equiv
   _atom_site_type_symbol
   Cr1        1.0     0.000000     0.000000     0.500000    Uiso  ? Cr
   Cr2        1.0     0.000000     0.000000     0.000000    Uiso  ? Cr
   Cr3        1.0     0.500000     0.000000     0.000000    Uiso  ? Cr
   Cr4        1.0     0.000000     0.500000     0.000000    Uiso  ? Cr
   Cr5        1.0     0.500000     0.500000     0.000000    Uiso  ? Cr
   Te1        1.0     0.336092     0.168046     0.747078    Uiso  ? Te
   Te2        1.0     0.663908     0.831954     0.252922    Uiso  ? Te
   Te3        1.0     0.831954     0.168046     0.747078    Uiso  ? Te
   Te4        1.0     0.168046     0.831954     0.252922    Uiso  ? Te
   Te5        1.0     0.831954     0.663908     0.747078    Uiso  ? Te
   Te6        1.0     0.168046     0.336092     0.252922    Uiso  ? Te
   Te7        1.0     0.666667     0.333333     0.248833    Uiso  ? Te
   Te8        1.0     0.333333     0.666667     0.749478    Uiso  ? Te
